Circuit: * C:\Users\khoih\OneDrive\Documents\GitHub\CircuitSimulation\Analog_Front_End_ver160218.asc

