Circuit: * C:\Users\khoih\OneDrive\Documents\GitHub\CircuitSimulation\Receiver.asc

Early termination of direct N-R iteration.
Direct Newton iteration failed to find .op point.  (Use ".option noopiter" to skip.)
Starting Gmin stepping
Gmin = 10
vernier = 0.5
vernier = 0.25
vernier = 0.125
vernier = 0.0625
Gmin = 8.61953
vernier = 0.03125
vernier = 0.015625
vernier = 0.0078125
vernier = 0.00390625
Gmin = 8.47038
vernier = 0.00195313
vernier = 0.000976563
vernier = 0.000488281
Gmin = 0
Gmin stepping failed

Starting source stepping with srcstepmethod=0
Source Step = 3.0303%
Source Step = 33.3333%
Source Step = 63.6364%
Source Step = 93.9394%
Source stepping succeeded in finding the operating point.


Date: Wed Jan 31 15:50:49 2018
Total elapsed time: 1.162 seconds.

tnom = 27
temp = 27
method = modified trap
totiter = 3749
traniter = 2094
tranpoints = 1048
accept = 1048
rejected = 0
matrix size = 89
fillins = 550
solver = Normal
Thread vector: 35.4/24.4[2] 16.1/19.3[1] 5.4/6.2[1] 3.0/6.0[1]  2592/500
Matrix Compiler1: 52.67 KB object code size  24.0/14.5/[5.2]
Matrix Compiler2: 16.41 KB object code size  11.0/9.3/[3.8]


